18
mol.xyz
C     1.03070000    -0.07680000     0.06770000
C     2.53800000    -0.21440000    -0.12550000
C     2.99750000    -0.46340000    -1.49170000
N     3.09380000     0.90540000    -0.90860000
C     4.47940000     1.20090000    -0.50870000
C     5.01760000     2.53370000    -1.00430000
C     4.47490000     2.41010000     0.41050000
H     0.59860000    -1.07330000     0.29480000
H     0.52630000     0.33730000    -0.83250000
H     0.83500000     0.60170000     0.92380000
H     3.17550000    -0.57150000     0.71420000
H     2.25180000    -0.44020000    -2.31440000
H     3.99580000    -0.93590000    -1.63370000
H     5.09800000     0.43550000     0.01500000
H     4.34280000     2.85880000    -1.82600000
H     6.09080000     2.33310000    -1.20820000
H     3.60210000     3.09770000     0.43410000
H     5.35240000     2.60380000     1.06330000
